Version 4
SHEET 1 3564 2068
WIRE 2272 896 2240 896
WIRE 2400 896 2352 896
WIRE 2528 896 2400 896
WIRE 2240 928 2240 896
WIRE 2400 944 2400 896
WIRE 2240 1024 2240 1008
WIRE 2400 1040 2400 1008
WIRE 1696 1072 1472 1072
WIRE 1744 1072 1696 1072
WIRE 1888 1072 1824 1072
WIRE 2064 1072 1888 1072
WIRE 1472 1088 1472 1072
WIRE 2064 1088 2064 1072
WIRE 2528 1120 2528 896
WIRE 2528 1120 2384 1120
WIRE 2384 1152 2384 1120
WIRE 2528 1152 2528 1120
WIRE 1696 1168 1696 1072
WIRE 1888 1168 1888 1072
WIRE 1472 1232 1472 1168
WIRE 1472 1232 1376 1232
WIRE 1568 1232 1472 1232
WIRE 2064 1232 2064 1152
WIRE 2064 1232 2016 1232
WIRE 2080 1232 2064 1232
WIRE 2160 1232 2144 1232
WIRE 2336 1232 2304 1232
WIRE 2480 1232 2448 1232
WIRE 2304 1248 2304 1232
WIRE 2448 1248 2448 1232
WIRE 1376 1264 1376 1232
WIRE 2528 1280 2528 1248
WIRE 2656 1280 2528 1280
WIRE 2848 1280 2736 1280
WIRE 1472 1296 1472 1232
WIRE 1568 1296 1472 1296
WIRE 2064 1296 2016 1296
WIRE 1472 1312 1472 1296
WIRE 2848 1312 2848 1280
WIRE 2864 1312 2848 1312
WIRE 3024 1312 3008 1312
WIRE 1280 1328 1184 1328
WIRE 1184 1344 1184 1328
WIRE 1280 1360 1280 1328
WIRE 2064 1360 2064 1296
WIRE 2064 1360 2016 1360
WIRE 2304 1360 2304 1328
WIRE 2304 1360 2064 1360
WIRE 2448 1360 2448 1328
WIRE 2448 1360 2304 1360
WIRE 3024 1360 3024 1312
WIRE 1376 1376 1376 1344
WIRE 2848 1376 2848 1312
WIRE 1472 1424 1472 1392
WIRE 1568 1424 1472 1424
WIRE 2160 1424 2160 1232
WIRE 2160 1424 2016 1424
WIRE 2384 1424 2384 1248
WIRE 2384 1424 2160 1424
WIRE 2528 1424 2528 1280
WIRE 2528 1424 2384 1424
WIRE 1184 1440 1184 1424
WIRE 2848 1472 2848 1440
WIRE 3024 1472 3024 1440
WIRE 1152 1488 976 1488
WIRE 1568 1488 1152 1488
WIRE 2064 1488 2016 1488
WIRE 1152 1504 1152 1488
WIRE 976 1536 976 1488
WIRE 2384 1536 2384 1424
WIRE 2528 1536 2528 1424
WIRE 1280 1552 1280 1440
WIRE 1568 1552 1280 1552
WIRE 2064 1552 2064 1488
WIRE 2064 1552 2016 1552
WIRE 1280 1584 1280 1552
WIRE 2336 1616 2304 1616
WIRE 2480 1616 2448 1616
WIRE 1152 1632 1152 1584
WIRE 1216 1632 1152 1632
WIRE 1648 1632 1648 1616
WIRE 1792 1632 1792 1616
WIRE 1936 1632 1936 1616
WIRE 2304 1632 2304 1616
WIRE 2448 1632 2448 1616
WIRE 976 1648 976 1616
WIRE 2384 1648 2384 1632
WIRE 2528 1648 2528 1632
WIRE 1280 1696 1280 1680
WIRE 2064 1728 2064 1552
WIRE 2304 1728 2304 1712
WIRE 2304 1728 2064 1728
WIRE 2448 1728 2448 1712
WIRE 2448 1728 2304 1728
FLAG 1648 1632 0
FLAG 1792 1632 0
FLAG 1936 1632 0
FLAG 1376 1376 0
FLAG 976 1648 0
FLAG 1280 1696 0
FLAG 1184 1440 0
FLAG 1152 1712 0
FLAG 2240 1024 0
FLAG 2400 1040 0
FLAG 2848 1472 0
FLAG 3024 1472 0
FLAG 2864 1312 output
IOPIN 2864 1312 Out
FLAG 3008 1312 output
IOPIN 3008 1312 In
FLAG 2384 1648 0
FLAG 2528 1648 0
SYMBOL POWERPRODUCTS\\LT1336 1792 1392 R0
SYMATTR InstName U1
SYMBOL ind 1728 1088 R270
WINDOW 0 32 56 VTop 0
WINDOW 3 5 56 VBottom 0
SYMATTR InstName L1
SYMATTR Value 200
SYMBOL RES 1456 1072 R0
SYMATTR InstName R1
SYMATTR Value 2
SYMBOL diode 2048 1088 R0
SYMATTR InstName D1
SYMBOL cap 2144 1216 R90
WINDOW 0 0 32 VBottom 0
WINDOW 3 32 32 VTop 0
SYMATTR InstName C1
SYMATTR Value 10
SYMBOL res 1456 1296 R0
SYMATTR InstName R2
SYMATTR Value 10K
SYMBOL VOLTAGE 1376 1248 R0
SYMATTR InstName V1
SYMATTR Value 10
SYMBOL voltage 976 1520 R0
WINDOW 123 24 120 Left 0
WINDOW 39 0 0 Left 0
WINDOW 3 -64 -57 Left 0
SYMATTR Value2 AC 1
SYMATTR Value PULSE(0 5 0 10n 10n {ds/2000000} 50u)
SYMATTR InstName V4
SYMBOL npn 1216 1584 R0
SYMATTR InstName Q1
SYMATTR Value BC547A
SYMBOL res 1264 1344 R0
SYMATTR InstName R3
SYMATTR Value 1k
SYMBOL res 1136 1488 R0
SYMATTR InstName R4
SYMATTR Value 4k
SYMBOL voltage 1184 1328 R0
WINDOW 123 0 0 Left 0
WINDOW 39 0 0 Left 0
SYMATTR InstName V5
SYMATTR Value 5
SYMBOL res 1136 1616 R0
SYMATTR InstName R5
SYMATTR Value 1k
SYMBOL cap 2384 944 R0
SYMATTR InstName C4
SYMATTR Value 10000
SYMBOL cap 2832 1376 R0
SYMATTR InstName C5
SYMATTR Value 10
SYMBOL voltage 2240 912 R0
WINDOW 123 0 0 Left 0
WINDOW 39 24 120 Left 0
SYMATTR SpiceLine Rser=1m
SYMATTR InstName V2
SYMATTR Value 50
SYMBOL ind 2752 1264 R90
WINDOW 0 5 56 VBottom 0
WINDOW 3 32 56 VTop 0
SYMATTR InstName L2
SYMATTR Value 1m
SYMATTR SpiceLine Rser=.01
SYMBOL res 3008 1344 R0
SYMATTR InstName R6
SYMATTR Value 5
SYMBOL nmos 2480 1152 R0
SYMATTR InstName M1
SYMATTR Value IRF1405
SYMBOL nmos 2336 1152 R0
SYMATTR InstName M2
SYMATTR Value IRF1405
SYMBOL res 2432 1232 R0
SYMATTR InstName R7
SYMATTR Value 5
SYMBOL nmos 2480 1536 R0
SYMATTR InstName M3
SYMATTR Value IRF1405
SYMBOL nmos 2336 1536 R0
SYMATTR InstName M4
SYMATTR Value IRF1405
SYMBOL res 2288 1616 R0
SYMATTR InstName R8
SYMATTR Value 5
SYMBOL res 2432 1616 R0
SYMATTR InstName R9
SYMATTR Value 5
SYMBOL res 2288 1232 R0
SYMATTR InstName R11
SYMATTR Value 5
SYMBOL res 2368 880 R90
WINDOW 0 0 56 VBottom 0
WINDOW 3 32 56 VTop 0
SYMATTR InstName R10
SYMATTR Value 10m
TEXT 1480 1616 Left 0 !.tran .1
TEXT 3048 1440 Left 0 ;Load
TEXT 936 1744 Left 0 !.param ds=50
TEXT 936 1768 Left 0 ;altering\n.param ds \nwill give the % on time\nif .param ds = 10 the FET's M1 and M2  will be on %10 of the time\nif .param ds = 50 the FET's M1 and M2  will be on %50 of the time\nif .param ds = 90 the FET's M1 and M2  will be on %90 of the time\nNote the output voltage as a percentage of the supply voltage.
TEXT 2808 1808 Left 0 ;File Name:  P11b_buck_converter.asc\nDrawn: Ken Kranz\nDate: 16 May 2011
TEXT 2608 1336 Left 0 ;L2 and C5 form a low pass filter\non the output.
TEXT 1672 1680 Left 0 ;This is a high and low side \ndriver chip it is in the default\nLTSpice library.
TEXT 1296 1584 Left 0 ;Phase\ninverter
TEXT 2872 1504 Left 0 ;Measure Power Input \nand power Output\nto determine efficiency.
TEXT 1400 1896 Left 0 !.model IRF1405 VDMOS(Rg=3 Vto=3.9 Rd=0.6m Rs=1.1m Rb=2.97m Kp=59 Cgdmax=8.1n Cgdmin=0.34n Cgs=6.5n Cjo=3.2n Is=33p mfg=International_Rectifier Vds=55 Ron=4.6m Qg=170n)
RECTANGLE Normal 3104 848 896 1920
