Version 4
SHEET 1 880 772
WIRE -848 48 -864 48
WIRE -864 80 -864 48
WIRE -864 80 -880 80
WIRE -768 80 -864 80
WIRE -640 80 -768 80
WIRE -560 80 -640 80
WIRE -400 80 -496 80
WIRE -320 80 -400 80
WIRE -272 80 -320 80
WIRE -32 80 -64 80
WIRE -880 112 -880 80
WIRE -768 112 -768 80
WIRE -640 112 -640 80
WIRE -1280 128 -1472 128
WIRE -480 128 -496 128
WIRE -400 128 -400 80
WIRE -1152 160 -1216 160
WIRE -320 160 -320 80
WIRE -32 160 -32 80
WIRE -1472 176 -1472 128
WIRE -1280 176 -1280 128
WIRE -1216 176 -1216 160
WIRE -1152 192 -1152 160
WIRE -1120 192 -1152 192
WIRE -880 192 -880 176
WIRE -880 192 -1040 192
WIRE -640 208 -640 192
WIRE -496 208 -496 192
WIRE -496 208 -640 208
WIRE -768 224 -768 176
WIRE -768 224 -1152 224
WIRE -880 240 -880 192
WIRE -768 240 -768 224
WIRE -640 240 -640 208
WIRE -496 240 -496 208
WIRE -1216 272 -1216 256
WIRE -1152 272 -1152 224
WIRE -1152 272 -1216 272
WIRE -1472 288 -1472 256
WIRE -1280 288 -1280 256
WIRE -1280 288 -1472 288
WIRE -1472 320 -1472 288
WIRE -880 320 -880 304
WIRE -768 320 -768 304
WIRE -768 320 -880 320
WIRE -640 320 -640 304
WIRE -640 320 -768 320
WIRE -496 320 -496 304
WIRE -496 320 -640 320
WIRE -320 320 -320 224
WIRE -320 320 -496 320
WIRE -240 320 -320 320
WIRE -32 320 -32 240
WIRE -32 320 -96 320
WIRE -320 352 -320 320
FLAG -1472 320 0
FLAG -64 80 +14.5_volts
IOPIN -64 80 In
FLAG -272 80 +14.5_volts
IOPIN -272 80 Out
FLAG -320 352 0
FLAG -240 320 gnd
IOPIN -240 320 Out
FLAG -96 320 gnd
IOPIN -96 320 In
FLAG -848 48 Bridge_output_test_point
IOPIN -848 48 Out
SYMBOL Misc\\SCR -560 96 R270
WINDOW 0 6 -1 VRight 0
WINDOW 3 42 10 VRight 0
SYMATTR InstName U1
SYMATTR Value X2N4171
SYMBOL ind2 -1296 160 R0
WINDOW 0 -19 37 Left 0
WINDOW 3 -16 64 Left 0
SYMATTR InstName L1
SYMATTR Value 5
SYMATTR Type ind
SYMATTR SpiceLine Rser=2
SYMBOL ind2 -1232 160 R0
SYMATTR InstName L2
SYMATTR Value .2
SYMATTR Type ind
SYMATTR SpiceLine Rser=.2
SYMBOL voltage -1472 160 R0
WINDOW 3 28 149 Left 0
WINDOW 123 0 0 Left 0
WINDOW 39 0 0 Left 0
SYMATTR InstName V1
SYMATTR Value SINE(0 169.7 60)
SYMBOL cap -336 160 R0
SYMATTR InstName C1
SYMATTR Value 20000µ
SYMBOL res -48 144 R0
SYMATTR InstName R1
SYMATTR Value 25
SYMATTR SpiceLine pwr=12
SYMBOL zener -480 304 R180
WINDOW 0 60 40 Left 0
WINDOW 3 31 20 Left 0
SYMATTR InstName D1
SYMATTR Value BZX84C15L
SYMATTR Description Diode
SYMATTR Type diode
SYMBOL diode -864 176 R180
WINDOW 0 24 72 Left 0
WINDOW 3 24 0 Left 0
SYMATTR InstName D2
SYMATTR Value MUR460
SYMBOL diode -752 176 R180
WINDOW 0 24 72 Left 0
WINDOW 3 24 0 Left 0
SYMATTR InstName D3
SYMATTR Value MUR460
SYMBOL diode -752 304 R180
WINDOW 0 24 72 Left 0
WINDOW 3 24 0 Left 0
SYMATTR InstName D4
SYMATTR Value MUR460
SYMBOL diode -864 304 R180
WINDOW 0 24 72 Left 0
WINDOW 3 24 0 Left 0
SYMATTR InstName D5
SYMATTR Value MUR460
SYMBOL res -656 96 R0
SYMATTR InstName R2
SYMATTR Value 1k
SYMBOL cap -656 240 R0
SYMATTR InstName C3
SYMATTR Value 10µ
SYMBOL diode -480 192 R180
WINDOW 0 24 72 Left 0
WINDOW 3 24 0 Left 0
SYMATTR InstName D6
SYMATTR Value 1N4148
SYMBOL res -384 112 R90
WINDOW 0 0 56 VBottom 0
WINDOW 3 32 56 VTop 0
SYMATTR InstName R3
SYMATTR Value 1k
SYMBOL res -1024 176 R90
WINDOW 0 0 56 VBottom 0
WINDOW 3 32 56 VTop 0
SYMATTR InstName R4
SYMATTR Value 1.5
TEXT -1368 424 Left 0 !*300V  8A\n.SUBCKT X2N4171  1 2 3\n*    TERMINALS:   A G K\nQP  6 4 1  POUT OFF\nQN  4 6 5  NOUT OFF\nRF  6 4    600K\nRR  1 4    400K\nRGK 6 5    112\nRG  2 6    4.61\nRK  3 5    8.13M\nDF  6 4    ZF\nDR  1 4    ZR\nDGK 6 5    ZGK\n.MODEL ZF   D (IS=3.2F IBV=100U BV=300 RS=90K)\n.MODEL ZR   D (IS=3.2F IBV=100U BV=400)\n.MODEL ZGK  D (IS=3.2F IBV=100U BV=5)\n.MODEL POUT PNP (IS=3.2P BF=1 CJE=670P)\n.MODEL NOUT NPN (IS=3.2P BF=100 RC=32.5M\n+ CJE=670P CJC=134P TF=179N TR=25.5U)\n.ENDS X2N4171
TEXT -248 616 Left 0 ;File Name:  P8_SCR_bucket_regulator\nDrawn: Ken Kranz\nDate: 2nd  May  2011\n \nFor reference only no responsibility\ntaken by Kenneth W Kranz.\nHigh voltge can Kill!
TEXT -1512 88 Left 0 ;120 VAC\n169.7 volts peak\n60 Hz
TEXT -1296 312 Left 0 ;Power Transformer.\nOpen circuit secondary voltage\n24 VAC = 33.94 volts peak
TEXT -80 200 Left 0 ;Load
TEXT -1442 334 Left 0 !.tran 1
TEXT -1288 104 Left 0 !K1 L1 L2 .995
TEXT -856 352 Left 0 ;Bridge\nRectifier
TEXT -624 360 Left 0 ;SCR Regulator
TEXT -360 376 Left 0 ;Output energy\nstorage\ncapacitor
TEXT -976 456 Left 0 !.model MUR460 D(Is=149n Rs=.0384 N=2 EG=1.285 XTI=.5 BV=800 IBV=1e-05 Cjo=126.4p Vj=1.34 M=.52 tt=44.4n Iave=4 Vpk=600 mfg=GI type=silicon)
TEXT -976 496 Left 0 !.model BZX84C15L D(Is=.6n Rs=.5 Cjo=110p nbv=6 bv=15 Ibv=1m Vpk=15 mfg=Motorola type=zener)
TEXT -976 536 Left 0 !.model 1N4148 D(Is=2.52n Rs=.568 N=1.752 Cjo=4p M=.4 tt=20n Iave=200m Vpk=75 mfg=Motorola type=silicon)
TEXT -312 248 Left 0 ;20000 uF
TEXT -1128 96 Left 0 ;May not be needed in\nin some cases.\nView current through\nthis resistor.
RECTANGLE Normal 32 752 -1536 16
